Version 4
SHEET 1 2320 1012
WIRE 592 16 592 0
WIRE 528 64 256 64
WIRE -704 160 -752 160
WIRE -672 160 -704 160
WIRE -432 160 -592 160
WIRE -368 160 -432 160
WIRE -352 160 -368 160
WIRE -112 160 -272 160
WIRE 256 160 256 144
WIRE 256 160 -112 160
WIRE 592 160 592 112
WIRE 688 160 592 160
WIRE 816 160 768 160
WIRE 928 160 816 160
WIRE 944 160 928 160
WIRE 1056 160 1024 160
WIRE 1088 160 1056 160
WIRE 1200 160 1168 160
WIRE 1248 160 1200 160
WIRE 1296 160 1248 160
WIRE 1296 176 1296 160
WIRE 928 192 928 160
WIRE 1056 192 1056 160
WIRE 1200 192 1200 160
WIRE 256 208 256 160
WIRE 816 208 816 160
WIRE -368 224 -368 160
WIRE -752 240 -752 160
WIRE 496 240 496 208
WIRE 1296 272 1296 256
WIRE 592 304 592 160
WIRE 496 336 496 320
WIRE 496 336 400 336
WIRE 816 336 816 288
WIRE 400 352 400 336
WIRE 496 352 496 336
WIRE 528 352 496 352
WIRE -368 368 -368 304
WIRE -752 384 -752 320
WIRE 496 384 496 352
WIRE 592 432 592 400
WIRE 592 432 560 432
WIRE -112 528 -112 160
WIRE -112 528 -208 528
WIRE -64 528 -112 528
WIRE -208 576 -208 528
WIRE -64 576 -64 528
WIRE -272 688 -272 656
WIRE -208 688 -208 640
WIRE -208 688 -272 688
WIRE -64 688 -64 640
WIRE 32 688 -64 688
WIRE -208 704 -208 688
WIRE -64 704 -64 688
WIRE 32 704 32 688
WIRE -208 784 -208 768
WIRE -128 784 -208 784
WIRE -64 784 -64 768
WIRE -64 784 -128 784
WIRE 32 800 32 784
WIRE -128 848 -128 784
FLAG -752 384 0
FLAG -704 160 source
FLAG -432 160 input
FLAG 928 256 0
FLAG 1056 256 0
FLAG 1200 256 0
FLAG -384 16 0
FLAG -384 -64 V+
FLAG -304 -64 V-
FLAG 592 0 V+
FLAG -304 16 0
FLAG 1296 272 0
FLAG -272 576 V+
FLAG -368 368 0
FLAG 592 512 V-
FLAG 496 480 V-
FLAG 496 208 0
FLAG 400 416 V-
FLAG 816 336 0
FLAG 256 288 0
FLAG 32 800 V-
FLAG -128 848 0
FLAG 1248 160 filtered
SYMBOL res -576 144 R90
WINDOW 0 0 56 VBottom 2
WINDOW 3 32 56 VTop 2
SYMATTR InstName R3
SYMATTR Value 50
SYMBOL voltage -752 224 R0
WINDOW 123 24 124 Left 2
WINDOW 39 0 0 Left 2
SYMATTR Value2 AC 1
SYMATTR InstName V1
SYMATTR Value SINE(0 5 {freq})
SYMBOL cap 1040 192 R0
SYMATTR InstName C4
SYMATTR Value 33p
SYMATTR SpiceLine Rser=0.3 Lser=768p
SYMBOL cap 912 192 R0
SYMATTR InstName C6
SYMATTR Value 22p
SYMATTR SpiceLine Rser=0.3 Lser=952p
SYMBOL cap 1184 192 R0
SYMATTR InstName C5
SYMATTR Value 22p
SYMATTR SpiceLine Rser=0.3 Lser=952p
SYMBOL voltage -384 -80 R0
WINDOW 123 0 0 Left 2
WINDOW 39 0 0 Left 2
SYMATTR InstName V2
SYMATTR Value 5
SYMBOL voltage -304 -80 R0
WINDOW 123 0 0 Left 2
WINDOW 39 0 0 Left 2
SYMATTR InstName V3
SYMATTR Value -5
SYMBOL res 1280 160 R0
SYMATTR InstName R4
SYMATTR Value 50
SYMBOL res 784 144 R90
WINDOW 0 0 56 VBottom 2
WINDOW 3 32 56 VTop 2
SYMATTR InstName R5
SYMATTR Value 100
SYMBOL res 800 192 R0
SYMATTR InstName R7
SYMATTR Value 100
SYMBOL res -256 560 M0
SYMATTR InstName R8
SYMATTR Value 1k
SYMBOL res 16 688 R0
SYMATTR InstName R9
SYMATTR Value 1k
SYMBOL res -256 144 R90
WINDOW 0 0 56 VBottom 2
WINDOW 3 32 56 VTop 2
SYMATTR InstName R10
SYMATTR Value 3.4
SYMBOL res -384 208 R0
SYMATTR InstName R11
SYMATTR Value 800
SYMBOL res 240 192 R0
SYMATTR InstName R2
SYMATTR Value 50
SYMBOL res 576 416 R0
SYMATTR InstName R1
SYMATTR Value 22
SYMBOL res 480 224 R0
SYMATTR InstName R6
SYMATTR Value 1k
SYMBOL cap 384 352 R0
SYMATTR InstName C1
SYMATTR Value 100n
SYMBOL npn 528 16 R0
SYMATTR InstName Q1
SYMATTR Value BFR540
SYMBOL npn 528 304 R0
SYMATTR InstName Q2
SYMATTR Value BFR540
SYMBOL npn 560 384 M0
SYMATTR InstName Q3
SYMATTR Value 2N3904
SYMBOL ind 928 176 R270
WINDOW 0 32 56 VTop 2
WINDOW 3 5 56 VBottom 2
SYMATTR InstName L1
SYMATTR Value 27n
SYMATTR SpiceLine Rser=1.2 Cpar=290f
SYMBOL ind 1072 176 R270
WINDOW 0 32 56 VTop 2
WINDOW 3 5 56 VBottom 2
SYMATTR InstName L4
SYMATTR Value 27n
SYMATTR SpiceLine Rser=1.2 Cpar=290f
SYMBOL res 240 48 R0
SYMATTR InstName R14
SYMATTR Value 0
SYMBOL diode-subckt -224 576 R0
WINDOW 3 -62 -79 Left 2
SYMATTR Value esd9l5-0st5g
SYMATTR InstName U5
SYMBOL diode-subckt -80 640 M180
WINDOW 0 24 64 Left 2
WINDOW 3 -17 137 Left 2
SYMATTR InstName U1
SYMATTR Value esd9l5-0st5g
SYMBOL diode -224 768 M180
WINDOW 0 24 64 Left 2
WINDOW 3 24 0 Left 2
SYMATTR InstName D1
SYMATTR Value BZX84C2V7
SYMBOL diode -48 704 M0
SYMATTR InstName D2
SYMATTR Value BZX84C2V7
TEXT 352 712 Left 2 !.ac dec 500 1Meg 1G
TEXT 880 -56 Left 2 ;22pF = C1608C0G1H220F080AA 1%
TEXT 880 -24 Left 2 ;33pF = C1608C0G1H330F080AA 1%
TEXT 880 8 Left 2 ;27nH = ELJ-RF27NGFB 2%
TEXT 352 656 Left 2 !;tran {30/freq}
TEXT 352 624 Left 2 !.param freq 1k
TEXT 352 688 Left 2 !.lib bipolar.lib
TEXT 880 40 Left 2 ;3.3uH = MLF1608A3R3KTA00
TEXT -832 80 Left 2 ;Signal source
TEXT -312 336 Left 2 ;Input protection
TEXT 352 -80 Left 2 ;Buffer
TEXT 688 56 Left 2 ;LP filter
TEXT 176 0 Left 2 ;Signal switch\ninserted here
TEXT 352 744 Left 2 !.lib diode.lib
TEXT -360 96 Left 2 ;F0402G0R05FNTR
TEXT 744 464 Left 2 ;Put these in plot.defs:\n \n.func RefCoeff(z,z0) {(z-z0)/(z+z0)}\n.func VSWR(rc) {(1+abs(rc))/(1-abs(rc))}
TEXT 728 600 Left 2 ;For input VSWR, plot:\n \nVSWR(RefCoeff(-V(input)/I(V1), 50))
RECTANGLE Normal -496 448 -832 96 2
RECTANGLE Normal 96 864 -336 352 2
RECTANGLE Normal 672 576 352 -64 2
RECTANGLE Normal 1376 384 672 80 2
